<?xml version="1.0" encoding="UTF-8"?>

<!-- generated on 2023-12-17 16:02:33.688632 by osmWebWizard.py v1_19_0+0000-baa66a0f364
<configuration>
    <net-file value="C:\Users\Deemanea\Sumo\2023-12-17-16-01-06\osm.net.xml.gz"/>
    <output-trip-file value="C:\Users\Deemanea\Sumo\2023-12-17-16-01-06\osm.passenger.trips.xml"/>
    <route-file value="C:\Users\Deemanea\Sumo\2023-12-17-16-01-06\osm.passenger.rou.xml"/>
    <prefix value="veh"/>
    <trip-attributes value="departLane=&quot;best&quot;"/>
    <fringe-start-attributes value="departSpeed=&quot;max&quot;"/>
    <vehicle-class value="passenger"/>
    <lanes value="True"/>
    <fringe-factor value="5"/>
    <allow-fringe.min-length value="1000.0"/>
    <via-edge-types value="highway.motorway,highway.motorway_link,highway.trunk_link,highway.primary_link,highway.secondary_link,highway.tertiary_link"/>
    <min-distance value="300.0"/>
    <min-distance.fringe value="10.0"/>
    <remove-loops value="True"/>
    <validate value="True"/>
    <end value="86400.0"/>
    <insertion-density value="12.0"/>
</configuration>
-->

<!-- generated on 2023-12-17 16:02:06 by Eclipse SUMO duarouter Version 1.19.0
<configuration xmlns:xsi="http://www.w3.org/2001/XMLSchema-instance" xsi:noNamespaceSchemaLocation="http://sumo.dlr.de/xsd/duarouterConfiguration.xsd">

    <input>
        <net-file value="C:\Users\Deemanea\Sumo\2023-12-17-16-01-06\osm.net.xml.gz"/>
        <route-files value="C:\Users\Deemanea\Sumo\2023-12-17-16-01-06\osm.passenger.trips.xml"/>
    </input>

    <output>
        <output-file value="C:\Users\Deemanea\Sumo\2023-12-17-16-01-06\osm.passenger.trips.xml.tmp"/>
        <alternatives-output value="NUL"/>
        <write-trips value="true"/>
    </output>

    <processing>
        <remove-loops value="true"/>
    </processing>

    <time>
        <begin value="0.0"/>
        <end value="86400.0"/>
    </time>

    <report>
        <no-warnings value="true"/>
        <ignore-errors value="true"/>
        <no-step-log value="true"/>
    </report>

</configuration>
-->

<routes xmlns:xsi="http://www.w3.org/2001/XMLSchema-instance" xsi:noNamespaceSchemaLocation="http://sumo.dlr.de/xsd/routes_file.xsd">
    <vType id="veh_passenger" vClass="passenger"/>
    <trip id="veh4" type="veh_passenger" depart="4.45" departLane="best" from="79439732" to="22940422#1"/>
    <trip id="veh7" type="veh_passenger" depart="7.79" departLane="best" from="-198655036#0" to="11699741#0"/>
    <trip id="veh9" type="veh_passenger" depart="10.01" departLane="best" from="-26221095#1" to="10374329"/>
    <trip id="veh10" type="veh_passenger" depart="11.13" departLane="best" from="26197960#0" to="22703350#1"/>
    <trip id="veh12" type="veh_passenger" depart="13.35" departLane="best" from="-84018084#2" to="405941199#0"/>
    <trip id="veh18" type="veh_passenger" depart="20.03" departLane="best" from="22901790#11" to="11699741#1"/>
    <trip id="veh19" type="veh_passenger" depart="21.14" departLane="best" from="23041884#1" to="26197715"/>
    <trip id="veh22" type="veh_passenger" depart="24.48" departLane="best" from="188945143#5" to="501013229#1"/>
    <trip id="veh31" type="veh_passenger" depart="34.49" departLane="best" from="-23131053#0" to="1108622137#2"/>
    <trip id="veh39" type="veh_passenger" depart="43.39" departLane="best" from="79439711#1" to="-22940001#0"/>
    <trip id="veh40" type="veh_passenger" depart="44.51" departLane="best" from="982307352#2" to="10374804#3"/>
    <trip id="veh43" type="veh_passenger" depart="47.84" departLane="best" from="-26195204#1" to="-79439733#0"/>
    <trip id="veh47" type="veh_passenger" depart="52.29" departLane="best" from="10374804#1" to="-22940001#2"/>
    <trip id="veh52" type="veh_passenger" depart="57.86" departLane="best" from="-518589816" to="24190227#1"/>
    <trip id="veh58" type="veh_passenger" depart="64.53" departLane="best" from="-1037412810#0" to="39102100"/>
    <trip id="veh59" type="veh_passenger" depart="65.65" departLane="best" from="-1039683983#4" to="-79439735#1"/>
    <trip id="veh61" type="veh_passenger" depart="67.87" departLane="best" from="-301105568#1" to="142812275"/>
    <trip id="veh66" type="veh_passenger" depart="73.43" departLane="best" from="971695879#0" to="1197323693#2"/>
    <trip id="veh68" type="veh_passenger" depart="75.66" departLane="best" from="79439733#1" to="22902445"/>
    <trip id="veh69" type="veh_passenger" depart="76.77" departLane="best" from="11698279#2" to="23131053#0"/>
    <trip id="veh71" type="veh_passenger" depart="79.00" departLane="best" from="-982307340#1" to="198655036#0"/>
    <trip id="veh72" type="veh_passenger" depart="80.11" departLane="best" from="798209675#16" to="1039683983#3"/>
    <trip id="veh75" type="veh_passenger" depart="83.45" departLane="best" from="-23131053#2" to="-22940001#1"/>
    <trip id="veh76" type="veh_passenger" depart="84.56" departLane="best" from="-23131053#0" to="-79439714#10"/>
    <trip id="veh81" type="veh_passenger" depart="90.12" departLane="best" from="-895678112#2" to="25492137"/>
    <trip id="veh82" type="veh_passenger" depart="91.24" departLane="best" from="26220902" to="223986018"/>
    <trip id="veh84" type="veh_passenger" depart="93.46" departLane="best" from="79439733#2" to="888718039#6"/>
    <trip id="veh91" type="veh_passenger" depart="101.25" departLane="best" from="24684524" to="-79439730"/>
    <trip id="veh94" type="veh_passenger" depart="104.59" departLane="best" from="-888718039#4" to="-79439733#1"/>
    <trip id="veh95" type="veh_passenger" depart="105.70" departLane="best" from="-4315319#0" to="205738417"/>
    <trip id="veh104" type="veh_passenger" depart="115.72" departLane="best" from="11699735#0" to="23466586#1"/>
    <trip id="veh106" type="veh_passenger" depart="117.94" departLane="best" from="-10374329" to="4340120#3"/>
    <trip id="veh115" type="veh_passenger" depart="127.95" departLane="best" from="22901790#10" to="22902620#1"/>
    <trip id="veh119" type="veh_passenger" depart="132.41" departLane="best" from="-5735017#0" to="-982307352#0"/>
    <trip id="veh122" type="veh_passenger" depart="135.74" departLane="best" from="522496321#1" to="522496319#1"/>
    <trip id="veh130" type="veh_passenger" depart="144.64" departLane="best" from="159736480#1" to="-136322906#0"/>
    <trip id="veh132" type="veh_passenger" depart="146.87" departLane="best" from="22902620#3" to="22901790#1"/>
    <trip id="veh136" type="veh_passenger" depart="151.32" departLane="best" from="79439733#2" to="24633185#0"/>
    <trip id="veh137" type="veh_passenger" depart="152.43" departLane="best" from="-1037412810#4" to="-243458408#1"/>
    <trip id="veh139" type="veh_passenger" depart="154.66" departLane="best" from="-23156165#0" to="12172792#2"/>
    <trip id="veh140" type="veh_passenger" depart="155.77" departLane="best" from="79439736#1" to="10374674#1"/>
    <trip id="veh142" type="veh_passenger" depart="158.00" departLane="best" from="79439714#0" to="11699741#1"/>
    <trip id="veh147" type="veh_passenger" depart="163.56" departLane="best" from="785763655#1" to="-22901843#0"/>
    <trip id="veh151" type="veh_passenger" depart="168.01" departLane="best" from="-198655036#2" to="-79439736#0"/>
    <trip id="veh161" type="veh_passenger" depart="179.14" departLane="best" from="854676511" to="26221095#1"/>
    <trip id="veh162" type="veh_passenger" depart="180.25" departLane="best" from="-26197772#0" to="-23041884#0"/>
    <trip id="veh166" type="veh_passenger" depart="184.70" departLane="best" from="194113142#4" to="-79439711#1"/>
    <trip id="veh170" type="veh_passenger" depart="189.15" departLane="best" from="852373417" to="-24229385#1"/>
    <trip id="veh176" type="veh_passenger" depart="195.83" departLane="best" from="-1037412810#2" to="-79439733#0"/>
    <trip id="veh177" type="veh_passenger" depart="196.94" departLane="best" from="-11698279#0" to="22940001#1"/>
    <trip id="veh182" type="veh_passenger" depart="202.50" departLane="best" from="22940001#1" to="26197959#0"/>
    <trip id="veh184" type="veh_passenger" depart="204.73" departLane="best" from="79439714#11" to="-26197775#1"/>
    <trip id="veh188" type="veh_passenger" depart="209.18" departLane="best" from="-26197959#1" to="11699741#4"/>
    <trip id="veh189" type="veh_passenger" depart="210.29" departLane="best" from="-1037412810#0" to="25959809#2"/>
    <trip id="veh192" type="veh_passenger" depart="213.63" departLane="best" from="798209675#20" to="22902618#0"/>
    <trip id="veh200" type="veh_passenger" depart="222.53" departLane="best" from="23466536#0" to="-971695879#0"/>
    <trip id="veh201" type="veh_passenger" depart="223.64" departLane="best" from="4315319#1" to="-142813677#1"/>
    <trip id="veh203" type="veh_passenger" depart="225.87" departLane="best" from="982307352#1" to="-23466433#6"/>
    <trip id="veh205" type="veh_passenger" depart="228.09" departLane="best" from="235608819#2" to="-243458408#0"/>
    <trip id="veh208" type="veh_passenger" depart="231.43" departLane="best" from="-1039683983#4" to="-1197323693#1"/>
    <trip id="veh213" type="veh_passenger" depart="236.99" departLane="best" from="-587383583#1" to="161887342#8"/>
    <trip id="veh215" type="veh_passenger" depart="239.22" departLane="best" from="-39102106#1" to="11699741#4"/>
    <trip id="veh218" type="veh_passenger" depart="242.56" departLane="best" from="-23466586#2" to="-194113140"/>
    <trip id="veh224" type="veh_passenger" depart="249.23" departLane="best" from="-23131053#3" to="-22634640#4"/>
    <trip id="veh226" type="veh_passenger" depart="251.46" departLane="best" from="-79439714#6" to="-11699735#0"/>
    <trip id="veh227" type="veh_passenger" depart="252.57" departLane="best" from="79439730" to="-79439714#10"/>
    <trip id="veh232" type="veh_passenger" depart="258.13" departLane="best" from="-901105899" to="-8162870#1"/>
    <trip id="veh233" type="veh_passenger" depart="259.25" departLane="best" from="79439729#0" to="23466586#1"/>
    <trip id="veh235" type="veh_passenger" depart="261.47" departLane="best" from="-798209675#12" to="-1106941850#0"/>
    <trip id="veh240" type="veh_passenger" depart="267.04" departLane="best" from="76246330#0" to="142812635#0"/>
    <trip id="veh247" type="veh_passenger" depart="274.82" departLane="best" from="-1039683983#4" to="-11698279#2"/>
    <trip id="veh248" type="veh_passenger" depart="275.94" departLane="best" from="984248965" to="198655036#3"/>
    <trip id="veh251" type="veh_passenger" depart="279.27" departLane="best" from="798209675#9" to="22703967#1"/>
    <trip id="veh271" type="veh_passenger" depart="301.53" departLane="best" from="150175103#1" to="-852373415#1"/>
    <trip id="veh273" type="veh_passenger" depart="303.75" departLane="best" from="-23131087#0" to="-872335142#2"/>
    <trip id="veh274" type="veh_passenger" depart="304.87" departLane="best" from="243458408#2" to="26221095#0"/>
    <trip id="veh276" type="veh_passenger" depart="307.09" departLane="best" from="243458408#0" to="4340120#2"/>
    <trip id="veh283" type="veh_passenger" depart="314.88" departLane="best" from="-22901789" to="24633185#0"/>
    <trip id="veh284" type="veh_passenger" depart="315.99" departLane="best" from="-10374674#1" to="798209675#7"/>
    <trip id="veh286" type="veh_passenger" depart="318.22" departLane="best" from="-980846299" to="-23861379#6"/>
    <trip id="veh287" type="veh_passenger" depart="319.33" departLane="best" from="22634640#0" to="-194113149"/>
    <trip id="veh288" type="veh_passenger" depart="320.44" departLane="best" from="981539992#0" to="-26195209"/>
    <trip id="veh293" type="veh_passenger" depart="326.01" departLane="best" from="22901790#1" to="-24523878#0"/>
    <trip id="veh297" type="veh_passenger" depart="330.46" departLane="best" from="-222812036#0" to="-22902620#2"/>
    <trip id="veh301" type="veh_passenger" depart="334.91" departLane="best" from="22634640#3" to="-23041884#0"/>
    <trip id="veh308" type="veh_passenger" depart="342.70" departLane="best" from="-890473178#0" to="-798209675#19"/>
    <trip id="veh310" type="veh_passenger" depart="344.92" departLane="best" from="798209675#16" to="976066330#1"/>
    <trip id="veh321" type="veh_passenger" depart="357.16" departLane="best" from="23156163#1" to="798209675#4"/>
    <trip id="veh322" type="veh_passenger" depart="358.27" departLane="best" from="22901790#5" to="22902144#1"/>
    <trip id="veh324" type="veh_passenger" depart="360.50" departLane="best" from="205738804#9" to="-142813752#0"/>
    <trip id="veh325" type="veh_passenger" depart="361.61" departLane="best" from="-1037412810#3" to="-8162870#0"/>
    <trip id="veh327" type="veh_passenger" depart="363.84" departLane="best" from="-23131053#3" to="-22901790#4"/>
    <trip id="veh329" type="veh_passenger" depart="366.06" departLane="best" from="223986015" to="-79439731"/>
    <trip id="veh332" type="veh_passenger" depart="369.40" departLane="best" from="79439735#0" to="11699741#0"/>
    <trip id="veh335" type="veh_passenger" depart="372.74" departLane="best" from="-205737212" to="301105568#1"/>
    <trip id="veh339" type="veh_passenger" depart="377.19" departLane="best" from="798209675#18" to="1037412810#6"/>
    <trip id="veh341" type="veh_passenger" depart="379.41" departLane="best" from="-11698279#1" to="-79439757"/>
    <trip id="veh342" type="veh_passenger" depart="380.53" departLane="best" from="-387591862" to="-235608819#1"/>
    <trip id="veh343" type="veh_passenger" depart="381.64" departLane="best" from="142814809" to="-852373417"/>
    <trip id="veh348" type="veh_passenger" depart="387.20" departLane="best" from="890800586" to="198655036#3"/>
    <trip id="veh355" type="veh_passenger" depart="394.99" departLane="best" from="-26195204#1" to="798209675#22"/>
    <trip id="veh358" type="veh_passenger" depart="398.33" departLane="best" from="-39091870#1" to="888718039#6"/>
    <trip id="veh361" type="veh_passenger" depart="401.67" departLane="best" from="11699735#0" to="-79439722"/>
    <trip id="veh365" type="veh_passenger" depart="406.12" departLane="best" from="-1197323693#1" to="-79439734"/>
    <trip id="veh366" type="veh_passenger" depart="407.23" departLane="best" from="798209675#16" to="22703967#0"/>
    <trip id="veh371" type="veh_passenger" depart="412.79" departLane="best" from="-981539988" to="79439714#9"/>
    <trip id="veh373" type="veh_passenger" depart="415.02" departLane="best" from="-39102114" to="1037412810#3"/>
    <trip id="veh374" type="veh_passenger" depart="416.13" departLane="best" from="22902620#2" to="-10374804#2"/>
    <trip id="veh376" type="veh_passenger" depart="418.36" departLane="best" from="976066330#0" to="-23466433#5"/>
    <trip id="veh377" type="veh_passenger" depart="419.47" departLane="best" from="12172792#1" to="5735174#1"/>
    <trip id="veh378" type="veh_passenger" depart="420.58" departLane="best" from="79439729#0" to="-10374804#1"/>
    <trip id="veh382" type="veh_passenger" depart="425.03" departLane="best" from="22901843#1" to="-194113149"/>
    <trip id="veh385" type="veh_passenger" depart="428.37" departLane="best" from="223986016" to="22703350#1"/>
    <trip id="veh388" type="veh_passenger" depart="431.71" departLane="best" from="-23466433#5" to="22901790#12"/>
    <trip id="veh391" type="veh_passenger" depart="435.05" departLane="best" from="976066330#0" to="9824283"/>
    <trip id="veh396" type="veh_passenger" depart="440.61" departLane="best" from="-22940421#0" to="79439714#9"/>
    <trip id="veh398" type="veh_passenger" depart="442.83" departLane="best" from="-890473178#0" to="888718039#4"/>
    <trip id="veh400" type="veh_passenger" depart="445.06" departLane="best" from="198655036#0" to="4340120#2"/>
    <trip id="veh405" type="veh_passenger" depart="450.62" departLane="best" from="-142813028#0" to="18668832#2"/>
    <trip id="veh406" type="veh_passenger" depart="451.74" departLane="best" from="79439728" to="-982307352#2"/>
    <trip id="veh409" type="veh_passenger" depart="455.07" departLane="best" from="22634640#4" to="-79439714#0"/>
    <trip id="veh410" type="veh_passenger" depart="456.19" departLane="best" from="-11699741#1" to="26197772#1"/>
    <trip id="veh414" type="veh_passenger" depart="460.64" departLane="best" from="205738804#4" to="-142813752#2"/>
    <trip id="veh416" type="veh_passenger" depart="462.86" departLane="best" from="-23156165#1" to="79439714#9"/>
    <trip id="veh417" type="veh_passenger" depart="463.97" departLane="best" from="194113142#4" to="-872335142#1"/>
    <trip id="veh418" type="veh_passenger" depart="465.09" departLane="best" from="-23861379#11" to="-23861379#3"/>
    <trip id="veh419" type="veh_passenger" depart="466.20" departLane="best" from="-10374674#0" to="26197959#1"/>
    <trip id="veh423" type="veh_passenger" depart="470.65" departLane="best" from="194113142#4" to="-79439734"/>
    <trip id="veh428" type="veh_passenger" depart="476.21" departLane="best" from="981539992#0" to="-26197775#0"/>
    <trip id="veh431" type="veh_passenger" depart="479.55" departLane="best" from="-223986014#0" to="-23466433#5"/>
    <trip id="veh433" type="veh_passenger" depart="481.78" departLane="best" from="-1037412810#1" to="-79439714#1"/>
    <trip id="veh434" type="veh_passenger" depart="482.89" departLane="best" from="-25959809#1" to="26197775#0"/>
    <trip id="veh440" type="veh_passenger" depart="489.57" departLane="best" from="194113151" to="22703350#1"/>
    <trip id="veh443" type="veh_passenger" depart="492.90" departLane="best" from="-26197775#0" to="23466586#1"/>
    <trip id="veh445" type="veh_passenger" depart="495.13" departLane="best" from="11698279#2" to="888718040#0"/>
    <trip id="veh448" type="veh_passenger" depart="498.47" departLane="best" from="368331791#6" to="-978955410#3"/>
    <trip id="veh449" type="veh_passenger" depart="499.58" departLane="best" from="26197960#1" to="-23466536#1"/>
    <trip id="veh450" type="veh_passenger" depart="500.69" departLane="best" from="-430439586#0" to="161887342#8"/>
    <trip id="veh453" type="veh_passenger" depart="504.03" departLane="best" from="-22940421#2" to="-971695879#1"/>
    <trip id="veh454" type="veh_passenger" depart="505.14" departLane="best" from="-888718039#2" to="26197959#1"/>
    <trip id="veh461" type="veh_passenger" depart="512.93" departLane="best" from="205737211" to="-562085653#0"/>
    <trip id="veh465" type="veh_passenger" depart="517.38" departLane="best" from="26197960#1" to="-79439714#7"/>
    <trip id="veh466" type="veh_passenger" depart="518.49" departLane="best" from="194113140" to="798209675#23"/>
    <trip id="veh470" type="veh_passenger" depart="522.95" departLane="best" from="-1039104152" to="-79439729#1"/>
    <trip id="veh471" type="veh_passenger" depart="524.06" departLane="best" from="-23466433#1" to="198655036#2"/>
    <trip id="veh473" type="veh_passenger" depart="526.28" departLane="best" from="-981539988" to="79439714#7"/>
    <trip id="veh484" type="veh_passenger" depart="538.52" departLane="best" from="-25494826#1" to="23466433#5"/>
    <trip id="veh485" type="veh_passenger" depart="539.63" departLane="best" from="-169135279#2" to="142812635#0"/>
    <trip id="veh487" type="veh_passenger" depart="541.86" departLane="best" from="22901790#4" to="-22902620#1"/>
    <trip id="veh488" type="veh_passenger" depart="542.97" departLane="best" from="501013229#1" to="214376707#14"/>
    <trip id="veh489" type="veh_passenger" depart="544.09" departLane="best" from="194113148" to="-785763655#3"/>
    <trip id="veh490" type="veh_passenger" depart="545.20" departLane="best" from="1037412810#3" to="4340380#4"/>
    <trip id="veh494" type="veh_passenger" depart="549.65" departLane="best" from="798209675#23" to="25959809#1"/>
    <trip id="veh495" type="veh_passenger" depart="550.76" departLane="best" from="-23156161#0" to="39091870#1"/>
    <trip id="veh498" type="veh_passenger" depart="554.10" departLane="best" from="24551345#4" to="-1039408858"/>
    <trip id="veh500" type="veh_passenger" depart="556.32" departLane="best" from="798209675#22" to="-11699735#1"/>
    <trip id="veh504" type="veh_passenger" depart="560.78" departLane="best" from="976066331" to="79439714#10"/>
    <trip id="veh505" type="veh_passenger" depart="561.89" departLane="best" from="-223986014#0" to="981539992#0"/>
    <trip id="veh510" type="veh_passenger" depart="567.45" departLane="best" from="39102101" to="-982307340#0"/>
    <trip id="veh513" type="veh_passenger" depart="570.79" departLane="best" from="-22901789" to="4340120#4"/>
    <trip id="veh514" type="veh_passenger" depart="571.90" departLane="best" from="-198655036#2" to="243446326#0"/>
    <trip id="veh515" type="veh_passenger" depart="573.01" departLane="best" from="22940001#2" to="22902620#0"/>
    <trip id="veh529" type="veh_passenger" depart="588.59" departLane="best" from="22940205" to="888718039#3"/>
    <trip id="veh533" type="veh_passenger" depart="593.04" departLane="best" from="-161887342#0" to="430439586#2"/>
    <trip id="veh539" type="veh_passenger" depart="599.72" departLane="best" from="79439735#1" to="-39102106#0"/>
    <trip id="veh541" type="veh_passenger" depart="601.94" departLane="best" from="22901790#1" to="22703350#1"/>
    <trip id="veh544" type="veh_passenger" depart="605.28" departLane="best" from="79439714#1" to="-194113142#2"/>
    <trip id="veh552" type="veh_passenger" depart="614.18" departLane="best" from="798209675#20" to="-24523878#4"/>
    <trip id="veh554" type="veh_passenger" depart="616.41" departLane="best" from="79439743#1" to="25494827"/>
    <trip id="veh560" type="veh_passenger" depart="623.08" departLane="best" from="-10374454#2" to="-23466536#1"/>
    <trip id="veh562" type="veh_passenger" depart="625.31" departLane="best" from="22901790#10" to="1037412810#5"/>
    <trip id="veh565" type="veh_passenger" depart="628.65" departLane="best" from="11698279#5" to="1039683983#3"/>
    <trip id="veh568" type="veh_passenger" depart="631.98" departLane="best" from="22901843#0" to="-79439728"/>
    <trip id="veh573" type="veh_passenger" depart="637.55" departLane="best" from="142814812#4" to="-1096259806#1"/>
    <trip id="veh578" type="veh_passenger" depart="643.11" departLane="best" from="79439714#11" to="4340120#3"/>
    <trip id="veh581" type="veh_passenger" depart="646.45" departLane="best" from="194113146" to="-22634640#8"/>
    <trip id="veh584" type="veh_passenger" depart="649.79" departLane="best" from="24523878#0" to="-982307352#1"/>
    <trip id="veh587" type="veh_passenger" depart="653.13" departLane="best" from="169135279#5" to="-4469746#1"/>
    <trip id="veh596" type="veh_passenger" depart="663.14" departLane="best" from="10374804#0" to="888718039#0"/>
    <trip id="veh599" type="veh_passenger" depart="666.48" departLane="best" from="-26221095#2" to="198655036#3"/>
    <trip id="veh605" type="veh_passenger" depart="673.15" departLane="best" from="-23466586#3" to="798209675#15"/>
    <trip id="veh608" type="veh_passenger" depart="676.49" departLane="best" from="-25494827" to="-79439714#7"/>
    <trip id="veh616" type="veh_passenger" depart="685.39" departLane="best" from="-194113142#2" to="198655036#3"/>
    <trip id="veh617" type="veh_passenger" depart="686.50" departLane="best" from="-888718039#2" to="22703967#0"/>
    <trip id="veh621" type="veh_passenger" depart="690.96" departLane="best" from="32314697" to="-205738804#8"/>
    <trip id="veh622" type="veh_passenger" depart="692.07" departLane="best" from="39102101" to="23156161#0"/>
    <trip id="veh624" type="veh_passenger" depart="694.29" departLane="best" from="194113149" to="-79439733#1"/>
    <trip id="veh631" type="veh_passenger" depart="702.08" departLane="best" from="-39988138#1" to="-562085653#0"/>
    <trip id="veh635" type="veh_passenger" depart="706.53" departLane="best" from="39102108" to="-243458408#1"/>
    <trip id="veh637" type="veh_passenger" depart="708.76" departLane="best" from="798209675#15" to="-79439719"/>
    <trip id="veh642" type="veh_passenger" depart="714.32" departLane="best" from="-26221095#0" to="-890473178#0"/>
    <trip id="veh645" type="veh_passenger" depart="717.66" departLane="best" from="872335142#2" to="25494826#0"/>
    <trip id="veh646" type="veh_passenger" depart="718.77" departLane="best" from="5735017#1" to="1108622137#0"/>
    <trip id="veh649" type="veh_passenger" depart="722.11" departLane="best" from="235608819#1" to="-194113142#4"/>
    <trip id="veh652" type="veh_passenger" depart="725.45" departLane="best" from="-4340120#1" to="25959809#0"/>
    <trip id="veh654" type="veh_passenger" depart="727.67" departLane="best" from="79439714#10" to="-194113148"/>
    <trip id="veh655" type="veh_passenger" depart="728.79" departLane="best" from="798209675#15" to="798209675#23"/>
    <trip id="veh656" type="veh_passenger" depart="729.90" departLane="best" from="-22940421#0" to="-8162870#1"/>
    <trip id="veh658" type="veh_passenger" depart="732.12" departLane="best" from="-12173807" to="10374328#1"/>
    <trip id="veh661" type="veh_passenger" depart="735.46" departLane="best" from="-198655036#0" to="26195204#0"/>
    <trip id="veh667" type="veh_passenger" depart="742.14" departLane="best" from="-22940422#0" to="1108622137#1"/>
    <trip id="veh669" type="veh_passenger" depart="744.36" departLane="best" from="26197960#0" to="11699741#4"/>
    <trip id="veh670" type="veh_passenger" depart="745.47" departLane="best" from="79439730" to="26197715"/>
    <trip id="veh673" type="veh_passenger" depart="748.81" departLane="best" from="-23466433#2" to="-194113142#4"/>
    <trip id="veh675" type="veh_passenger" depart="751.04" departLane="best" from="-23156165#1" to="-79439725"/>
    <trip id="veh678" type="veh_passenger" depart="754.38" departLane="best" from="1106941850#1" to="-10374804#0"/>
    <trip id="veh679" type="veh_passenger" depart="755.49" departLane="best" from="980510283#0" to="-136322906#1"/>
    <trip id="veh685" type="veh_passenger" depart="762.16" departLane="best" from="243458408#2" to="23131088#0"/>
    <trip id="veh689" type="veh_passenger" depart="766.62" departLane="best" from="-888718039#3" to="-22634640#6"/>
    <trip id="veh693" type="veh_passenger" depart="771.07" departLane="best" from="11699735#1" to="22703967#1"/>
    <trip id="veh694" type="veh_passenger" depart="772.18" departLane="best" from="11698279#5" to="-79439744#0"/>
    <trip id="veh698" type="veh_passenger" depart="776.63" departLane="best" from="-4392822#1" to="-252692343#0"/>
    <trip id="veh701" type="veh_passenger" depart="779.97" departLane="best" from="-5735174#2" to="23466433#2"/>
    <trip id="veh703" type="veh_passenger" depart="782.19" departLane="best" from="-1037412810#2" to="-79439731"/>
    <trip id="veh704" type="veh_passenger" depart="783.31" departLane="best" from="-1039683985#0" to="-26197775#3"/>
    <trip id="veh710" type="veh_passenger" depart="789.98" departLane="best" from="79439735#1" to="223986018"/>
    <trip id="veh711" type="veh_passenger" depart="791.09" departLane="best" from="-4340298#2" to="-11698279#5"/>
    <trip id="veh714" type="veh_passenger" depart="794.43" departLane="best" from="971695879#1" to="-798209675#4"/>
    <trip id="veh724" type="veh_passenger" depart="805.56" departLane="best" from="142813750" to="1115179606#0"/>
    <trip id="veh727" type="veh_passenger" depart="808.90" departLane="best" from="-23131088#1" to="1037412810#4"/>
    <trip id="veh729" type="veh_passenger" depart="811.12" departLane="best" from="23945264#1" to="-23945031#0"/>
    <trip id="veh730" type="veh_passenger" depart="812.23" departLane="best" from="798209675#9" to="-982307352#1"/>
    <trip id="veh731" type="veh_passenger" depart="813.35" departLane="best" from="-25959809#0" to="-79439721"/>
    <trip id="veh734" type="veh_passenger" depart="816.68" departLane="best" from="785763655#0" to="798209675#7"/>
    <trip id="veh736" type="veh_passenger" depart="818.91" departLane="best" from="-430439586#3" to="-368331791#5"/>
    <trip id="veh739" type="veh_passenger" depart="822.25" departLane="best" from="-4340120#2" to="22902144#1"/>
    <trip id="veh740" type="veh_passenger" depart="823.36" departLane="best" from="-26197715" to="-10374804#2"/>
    <trip id="veh743" type="veh_passenger" depart="826.70" departLane="best" from="1080025275#1" to="-136322906#1"/>
    <trip id="veh746" type="veh_passenger" depart="830.04" departLane="best" from="142814812#3" to="-32314695"/>
    <trip id="veh750" type="veh_passenger" depart="834.49" departLane="best" from="-888718040#1" to="-194113145#0"/>
    <trip id="veh758" type="veh_passenger" depart="843.39" departLane="best" from="-39091870#0" to="-22901843#0"/>
    <trip id="veh759" type="veh_passenger" depart="844.50" departLane="best" from="-4340106" to="-798209675#16"/>
    <trip id="veh765" type="veh_passenger" depart="851.18" departLane="best" from="798209675#17" to="198655036#2"/>
    <trip id="veh766" type="veh_passenger" depart="852.29" departLane="best" from="-203252264#0" to="-22940001#2"/>
    <trip id="veh772" type="veh_passenger" depart="858.97" departLane="best" from="79439725" to="194113142#1"/>
    <trip id="veh777" type="veh_passenger" depart="864.53" departLane="best" from="142813677#1" to="142812419#2"/>
    <trip id="veh793" type="veh_passenger" depart="882.33" departLane="best" from="-308988955" to="1040033584"/>
    <trip id="veh794" type="veh_passenger" depart="883.44" departLane="best" from="798209675#22" to="10374454#3"/>
    <trip id="veh795" type="veh_passenger" depart="884.56" departLane="best" from="-888718039#1" to="22902620#0"/>
    <trip id="veh796" type="veh_passenger" depart="885.67" departLane="best" from="-4340380#1" to="-1197323693#1"/>